*Heading
** Job name: Axisy_LD_part Model name: Axisy_verify_Dbi
** Generated by: Abaqus/CAE 2023
*Preprint, echo=NO, model=NO, history=NO, contact=NO
**
** PARTS
**
*Part, name=Part-1
*Node
      1,   7.49889326,   2.02576995
      2,          7.5,           2.
      3,   7.49560356,   2.05135393
      4,          7.5,   1.83440006
      5,          7.5,   1.75160003
      6,          7.5,   1.58599997
      7,          7.5,   1.42040002
      8,          7.5,   1.25911999
      9,          7.5,   1.01719999
     10,          7.5,  0.855920076
     11,          7.5,  0.614000082
     12,          7.5,  0.460500062
     13,          7.5,  0.307000041
     14,          7.5,  0.153500021
     15,          7.5,           0.
     16,   9.83870983,           0.
     17,   9.67741966,           0.
     18,   9.43548393,           0.
     19,   9.27419376,           0.
     20,   9.11290359,           0.
** ... 3199 like lines cut
*Element, type=CPS4
   1,  843,  842,  844,  846
   2,  841,  851,  852,  161
   3,  839,  860,  861,  160
   4,  840,  862,  853,  159
   5, 1113,  860,  852,  358
   6,  842,  843,    3,    1
   7, 2802,  844,  847,  178
   8,  844,  842,  845,  847
   9,  849, 1218, 1276,  192
  10, 1219, 1218,    5,  665
  11, 1217, 1220,  666,    7
  12, 1130,  234, 1275, 1217
  13, 1126, 1131,  668,  669
  14, 1204, 1132, 1128,  163
  15,  163, 1317, 1361, 1454
  16, 1617, 1515, 1703,  277
  17,  319, 1797, 1492, 1471
  18, 1258, 1214,  334, 1382
  19, 1135,  335, 1209, 1161
  20,  687,   23, 1151, 1135
** ... 3028 like lines cut
*Nset, nset=_PickedSet99, internal, generate
    1,  3219,     1
*Elset, elset=_PickedSet99, internal, generate
    1,  3048,     1
*Nset, nset=Fixed
  15,  16,  17,  18,  19,  20,  21,  22,  23,  24,  25,  26,  27,  28,  29,  30
  31,  32,  33,  34,  35,  36,  37,  38,  39,  40,  41,  42,  43,  44,  45,  46
  47,  48,  49,  50,  51,  52,  53, 677, 678, 679, 680, 681, 682, 683, 684, 685
 686, 687, 688, 689, 690, 691, 692, 693, 694, 695, 696, 697, 698, 699, 700, 701
 702, 703, 704, 705, 706, 707, 708, 709, 710, 711, 712, 713, 714, 715, 716, 717
 718, 719
*Nset, nset=TopNodeSet
  54,  55,  56,  57,  58,  59,  60,  61,  62,  63,  64,  65,  66,  67,  68,  69
  70,  71,  72,  73,  74,  75,  76,  77,  78,  79,  80,  81,  82,  83,  84,  85
  86,  87,  88,  89,  90,  91,  92,  93,  94,  95,  96,  97,  98,  99, 100, 101
 113, 720, 721, 722, 723, 724, 725, 726, 727, 728, 729, 730, 731, 732, 733, 734
 735, 736, 737, 738, 739, 740, 741, 742, 743, 744, 745, 746, 747, 748, 749, 750
 751, 752, 753, 754, 755, 756, 757, 758, 759, 760, 761, 762, 763, 764, 765, 766
 767, 768, 769, 770, 771
*Elset, elset=_pressure_S3, internal
    6,   10,   11,   13,   92,  564,  637, 1076, 1078, 1080, 1081, 1082, 1432
*Elset, elset=_pressure_S2, internal
  435,  507,  508,  565,  591,  597,  602,  603,  607,  636,  661,  662,  667,  671,  678,  679
  680, 1184, 1185, 1188, 1193, 1196, 1197, 1198, 1200, 1201, 1202, 1204, 1205, 1206, 1223, 1233
 1246, 1272, 1417, 1419, 1507, 1515
*Elset, elset=_pressure_S1, internal
   70,   82,   83,   88, 1194, 1212, 1250, 1251, 1253, 1429, 1431, 1433, 1434, 1503, 1504
*Elset, elset=_pressure_S4, internal
    2,    3,    4,  405,  415,  416,  424,  425,  434,  462,  471,  472,  479,  485,  486,  494
  495,  505,  506,  535,  553,  558,  559,  569,  575,  581,  586,  592,  598,  608,  612,  613
  614,  617,  618,  622,  623,  627,  632,  641,  645,  646,  654,  657,  675,  676,  874,  908
  909, 1178, 1179, 1180, 1181, 1186, 1187, 1189, 1190, 1192, 1195, 1199, 1203, 1210
*Surface, type=ELEMENT, name=pressure
_pressure_S3, S3
_pressure_S2, S2
_pressure_S4, S4
_pressure_S1, S1
** Section: Section-1
*Solid Section, elset=_PickedSet99, material=Material-1
,
*End Part
**  
**
** ASSEMBLY
**
*Assembly, name=Assembly
**  
*Instance, name=Part-1-1, part=Part-1
          0.,         -1.5,           0.
*End Instance
**  
*End Assembly
** 
** MATERIALS
** 
*Material, name=Material-1
*Elastic
150000., 0.3
*Plastic, hardening=COMBINED, datatype=PARAMETERS, number backstresses=1
191.,0.,0.
*Cyclic Hardening, parameters
191., 583., 6.95
** ----------------------------------------------------------------
** 
** STEP: Step-1
** 
*Step, name=Step-1, nlgeom=YES, inc=10000
*Static
0.05, 1., 1e-05, 0.05
** 
** BOUNDARY CONDITIONS
** 
** Name: BC-1 Type: Displacement/Rotation
*Boundary
Part-1-1.Fixed, 1, 1
Part-1-1.Fixed, 2, 2
Part-1-1.Fixed, 6, 6
** 
** LOADS
** 
** Name: Load-1   Type: Pressure
*Dsload
Part-1-1.pressure, P, 20.
** 
** OUTPUT REQUESTS
** 
*Restart, write, frequency=0
** 
** FIELD OUTPUT: F-Output-1
** 
*Output, field
*Node Output
U, 
*Element Output, directions=YES
LE, P, PE, PEEQ, PEMAG, S
** 
** HISTORY OUTPUT: H-Output-1
** 
*Output, history, variable=PRESELECT
*End Step
